* Diode 1N914 SPICE Model Data
.MODEL 1N914 D (IS=6.223n N=1.9224 RS=0.336
+ IKF=42.843m CJO=764.38f M=.1001 VJ=0.75 BV=100 IBV=0.25951 TT=2.88n)


